./lig1_out.pdbqt0.pdbqt
 OpenBabel10092110123D

  8  8  0  0  0  0  0  0  0  0999 V2000
    3.7650   67.8160   66.9910 C   0  0  0  0  0  0  0  0  0  0  0  0
    4.7260   67.0590   66.3210 C   0  0  0  0  0  0  0  0  0  0  0  0
    5.3660   66.0070   66.9770 C   0  0  0  0  0  0  0  0  0  0  0  0
    5.0430   65.7110   68.3030 C   0  0  0  0  0  0  0  0  0  0  0  0
    4.0800   66.4680   68.9750 C   0  0  0  0  0  0  0  0  0  0  0  0
    3.4520   67.5170   68.3110 C   0  0  0  0  0  0  0  0  0  0  0  0
    2.5110   68.2870   68.9310 O   0  0  0  0  0  0  0  0  0  0  0  0
    2.1220   68.8860   68.2740 H   0  0  0  0  0  0  0  0  0  0  0  0
  1  6  2  0  0  0  0
  2  3  2  0  0  0  0
  2  1  1  0  0  0  0
  3  4  1  0  0  0  0
  4  5  2  0  0  0  0
  6  7  1  0  0  0  0
  6  5  1  0  0  0  0
  8  7  1  0  0  0  0
M  END
>  <MODEL>
1

>  <REMARK>
 VINA RESULT:      -5.2      0.000      0.000
  1 active torsions:
  status: ('A' for Active; 'I' for Inactive)
    1  A    between atoms: C_6  and  O_7 

>  <TORSDO>
F 1

$$$$
