MODEL 1
REMARK VINA RESULT:      -5.2      0.000      0.000
REMARK  1 active torsions:
REMARK  status: ('A' for Active; 'I' for Inactive)
REMARK    1  A    between atoms: C_6  and  O_7 
ROOT
ATOM      1  C   LIG d   1       3.765  67.816  66.991  0.00  0.00     0.036 A 
ATOM      2  C   LIG d   1       4.726  67.059  66.321  0.00  0.00     0.003 A 
ATOM      3  C   LIG d   1       5.366  66.007  66.977  0.00  0.00     0.000 A 
ATOM      4  C   LIG d   1       5.043  65.711  68.303  0.00  0.00     0.003 A 
ATOM      5  C   LIG d   1       4.080  66.468  68.975  0.00  0.00     0.036 A 
ATOM      6  C   LIG d   1       3.452  67.517  68.311  0.00  0.00     0.065 A 
ENDROOT
BRANCH   6   7
ATOM      7  O   LIG d   1       2.511  68.287  68.931  0.00  0.00    -0.361 OA
ATOM      8  H   LIG d   1       2.122  68.886  68.274  0.00  0.00     0.217 HD
ENDBRANCH   6   7
TORSDOF 1
ENDMDL
MODEL 2
REMARK VINA RESULT:      -5.1      0.278      1.841
REMARK  1 active torsions:
REMARK  status: ('A' for Active; 'I' for Inactive)
REMARK    1  A    between atoms: C_6  and  O_7 
ROOT
ATOM      1  C   LIG d   1       3.918  66.403  69.072  0.00  0.00     0.036 A 
ATOM      2  C   LIG d   1       4.940  65.590  68.584  0.00  0.00     0.003 A 
ATOM      3  C   LIG d   1       5.439  65.793  67.297  0.00  0.00     0.000 A 
ATOM      4  C   LIG d   1       4.916  66.812  66.498  0.00  0.00     0.003 A 
ATOM      5  C   LIG d   1       3.892  67.628  66.985  0.00  0.00     0.036 A 
ATOM      6  C   LIG d   1       3.400  67.412  68.269  0.00  0.00     0.065 A 
ENDROOT
BRANCH   6   7
ATOM      7  O   LIG d   1       2.396  68.180  68.782  0.00  0.00    -0.361 OA
ATOM      8  H   LIG d   1       1.778  67.602  69.257  0.00  0.00     0.217 HD
ENDBRANCH   6   7
TORSDOF 1
ENDMDL
MODEL 3
REMARK VINA RESULT:      -5.1      5.035      6.037
REMARK  1 active torsions:
REMARK  status: ('A' for Active; 'I' for Inactive)
REMARK    1  A    between atoms: C_6  and  O_7 
ROOT
ATOM      1  C   LIG d   1       3.025  68.383  62.612  0.00  0.00     0.036 A 
ATOM      2  C   LIG d   1       3.232  68.576  63.978  0.00  0.00     0.003 A 
ATOM      3  C   LIG d   1       4.483  68.983  64.442  0.00  0.00     0.000 A 
ATOM      4  C   LIG d   1       5.527  69.201  63.540  0.00  0.00     0.003 A 
ATOM      5  C   LIG d   1       5.321  69.009  62.172  0.00  0.00     0.036 A 
ATOM      6  C   LIG d   1       4.070  68.598  61.721  0.00  0.00     0.065 A 
ENDROOT
BRANCH   6   7
ATOM      7  O   LIG d   1       3.826  68.392  60.395  0.00  0.00    -0.361 OA
ATOM      8  H   LIG d   1       4.325  67.610  60.109  0.00  0.00     0.217 HD
ENDBRANCH   6   7
TORSDOF 1
ENDMDL
MODEL 4
REMARK VINA RESULT:      -5.1      4.764      5.848
REMARK  1 active torsions:
REMARK  status: ('A' for Active; 'I' for Inactive)
REMARK    1  A    between atoms: C_6  and  O_7 
ROOT
ATOM      1  C   LIG d   1       5.333  69.134  63.805  0.00  0.00     0.036 A 
ATOM      2  C   LIG d   1       4.318  68.964  64.746  0.00  0.00     0.003 A 
ATOM      3  C   LIG d   1       3.040  68.589  64.333  0.00  0.00     0.000 A 
ATOM      4  C   LIG d   1       2.776  68.380  62.978  0.00  0.00     0.003 A 
ATOM      5  C   LIG d   1       3.792  68.549  62.034  0.00  0.00     0.036 A 
ATOM      6  C   LIG d   1       5.062  68.928  62.457  0.00  0.00     0.065 A 
ENDROOT
BRANCH   6   7
ATOM      7  O   LIG d   1       6.081  69.112  61.569  0.00  0.00    -0.361 OA
ATOM      8  H   LIG d   1       6.459  69.994  61.713  0.00  0.00     0.217 HD
ENDBRANCH   6   7
TORSDOF 1
ENDMDL
MODEL 5
REMARK VINA RESULT:      -5.1      1.617      2.400
REMARK  1 active torsions:
REMARK  status: ('A' for Active; 'I' for Inactive)
REMARK    1  A    between atoms: C_6  and  O_7 
ROOT
ATOM      1  C   LIG d   1       3.605  67.641  67.571  0.00  0.00     0.036 A 
ATOM      2  C   LIG d   1       3.555  66.985  68.801  0.00  0.00     0.003 A 
ATOM      3  C   LIG d   1       4.416  65.918  69.057  0.00  0.00     0.000 A 
ATOM      4  C   LIG d   1       5.330  65.508  68.084  0.00  0.00     0.003 A 
ATOM      5  C   LIG d   1       5.382  66.164  66.852  0.00  0.00     0.036 A 
ATOM      6  C   LIG d   1       4.515  67.225  66.606  0.00  0.00     0.065 A 
ENDROOT
BRANCH   6   7
ATOM      7  O   LIG d   1       4.526  67.889  65.415  0.00  0.00    -0.361 OA
ATOM      8  H   LIG d   1       4.385  67.245  64.703  0.00  0.00     0.217 HD
ENDBRANCH   6   7
TORSDOF 1
ENDMDL
MODEL 6
REMARK VINA RESULT:      -5.1      1.803      2.551
REMARK  1 active torsions:
REMARK  status: ('A' for Active; 'I' for Inactive)
REMARK    1  A    between atoms: C_6  and  O_7 
ROOT
ATOM      1  C   LIG d   1       5.469  65.744  67.383  0.00  0.00     0.036 A 
ATOM      2  C   LIG d   1       4.977  66.714  66.511  0.00  0.00     0.003 A 
ATOM      3  C   LIG d   1       3.948  67.563  66.920  0.00  0.00     0.000 A 
ATOM      4  C   LIG d   1       3.414  67.444  68.205  0.00  0.00     0.003 A 
ATOM      5  C   LIG d   1       3.906  66.473  69.080  0.00  0.00     0.036 A 
ATOM      6  C   LIG d   1       4.929  65.629  68.659  0.00  0.00     0.065 A 
ENDROOT
BRANCH   6   7
ATOM      7  O   LIG d   1       5.435  64.663  69.478  0.00  0.00    -0.361 OA
ATOM      8  H   LIG d   1       4.816  64.529  70.214  0.00  0.00     0.217 HD
ENDBRANCH   6   7
TORSDOF 1
ENDMDL
MODEL 7
REMARK VINA RESULT:      -5.0      1.764      2.464
REMARK  1 active torsions:
REMARK  status: ('A' for Active; 'I' for Inactive)
REMARK    1  A    between atoms: C_6  and  O_7 
ROOT
ATOM      1  C   LIG d   1       3.944  66.505  68.844  0.00  0.00     0.036 A 
ATOM      2  C   LIG d   1       5.082  65.709  68.977  0.00  0.00     0.003 A 
ATOM      3  C   LIG d   1       4.957  64.375  69.368  0.00  0.00     0.000 A 
ATOM      4  C   LIG d   1       3.695  63.837  69.623  0.00  0.00     0.003 A 
ATOM      5  C   LIG d   1       2.554  64.633  69.491  0.00  0.00     0.036 A 
ATOM      6  C   LIG d   1       2.691  65.963  69.104  0.00  0.00     0.065 A 
ENDROOT
BRANCH   6   7
ATOM      7  O   LIG d   1       1.606  66.778  68.969  0.00  0.00    -0.361 OA
ATOM      8  H   LIG d   1       0.940  66.513  69.623  0.00  0.00     0.217 HD
ENDBRANCH   6   7
TORSDOF 1
ENDMDL
MODEL 8
REMARK VINA RESULT:      -5.0      1.794      2.855
REMARK  1 active torsions:
REMARK  status: ('A' for Active; 'I' for Inactive)
REMARK    1  A    between atoms: C_6  and  O_7 
ROOT
ATOM      1  C   LIG d   1       2.553  64.611  69.504  0.00  0.00     0.036 A 
ATOM      2  C   LIG d   1       3.687  63.809  69.632  0.00  0.00     0.003 A 
ATOM      3  C   LIG d   1       4.950  64.341  69.373  0.00  0.00     0.000 A 
ATOM      4  C   LIG d   1       5.080  65.677  68.987  0.00  0.00     0.003 A 
ATOM      5  C   LIG d   1       3.945  66.482  68.858  0.00  0.00     0.036 A 
ATOM      6  C   LIG d   1       2.690  65.938  69.116  0.00  0.00     0.065 A 
ENDROOT
BRANCH   6   7
ATOM      7  O   LIG d   1       1.555  66.686  68.996  0.00  0.00    -0.361 OA
ATOM      8  H   LIG d   1       1.175  66.528  68.117  0.00  0.00     0.217 HD
ENDBRANCH   6   7
TORSDOF 1
ENDMDL
MODEL 9
REMARK VINA RESULT:      -4.7      2.392      3.339
REMARK  1 active torsions:
REMARK  status: ('A' for Active; 'I' for Inactive)
REMARK    1  A    between atoms: C_6  and  O_7 
ROOT
ATOM      1  C   LIG d   1       3.432  63.844  67.807  0.00  0.00     0.036 A 
ATOM      2  C   LIG d   1       4.065  63.653  69.035  0.00  0.00     0.003 A 
ATOM      3  C   LIG d   1       5.094  64.509  69.429  0.00  0.00     0.000 A 
ATOM      4  C   LIG d   1       5.487  65.559  68.597  0.00  0.00     0.003 A 
ATOM      5  C   LIG d   1       4.854  65.752  67.367  0.00  0.00     0.036 A 
ATOM      6  C   LIG d   1       3.832  64.889  66.982  0.00  0.00     0.065 A 
ENDROOT
BRANCH   6   7
ATOM      7  O   LIG d   1       3.192  65.037  65.787  0.00  0.00    -0.361 OA
ATOM      8  H   LIG d   1       3.682  65.682  65.253  0.00  0.00     0.217 HD
ENDBRANCH   6   7
TORSDOF 1
ENDMDL
