MODEL 1
REMARK VINA RESULT:      -5.2      0.000      0.000
REMARK  1 active torsions:
REMARK  status: ('A' for Active; 'I' for Inactive)
REMARK    1  A    between atoms: C_6  and  O_7 
ROOT
ATOM      1  C   LIG d   1       3.765  67.816  66.991  0.00  0.00     0.036 A 
ATOM      2  C   LIG d   1       4.726  67.059  66.321  0.00  0.00     0.003 A 
ATOM      3  C   LIG d   1       5.366  66.007  66.977  0.00  0.00     0.000 A 
ATOM      4  C   LIG d   1       5.043  65.711  68.303  0.00  0.00     0.003 A 
ATOM      5  C   LIG d   1       4.080  66.468  68.975  0.00  0.00     0.036 A 
ATOM      6  C   LIG d   1       3.452  67.517  68.311  0.00  0.00     0.065 A 
ENDROOT
BRANCH   6   7
ATOM      7  O   LIG d   1       2.511  68.287  68.931  0.00  0.00    -0.361 OA
ATOM      8  H   LIG d   1       2.122  68.886  68.274  0.00  0.00     0.217 HD
ENDBRANCH   6   7
TORSDOF 1
ENDMDL
