MODEL 1
REMARK VINA RESULT:      -6.4      0.000      0.000
REMARK  1 active torsions:
REMARK  status: ('A' for Active; 'I' for Inactive)
REMARK    1  A    between atoms: C_6  and  O_7 
ROOT
ATOM      1  C   LIG d   1       3.704  66.415  69.198  0.00  0.00     0.038 A 
ATOM      2  C   LIG d   1       4.748  65.534  68.933  0.00  0.00     0.003 A 
ATOM      3  C   LIG d   1       5.421  65.595  67.709  0.00  0.00     0.008 A 
ATOM      4  C   LIG d   1       5.059  66.536  66.730  0.00  0.00    -0.042 A 
ATOM      5  C   LIG d   1       4.007  67.425  67.010  0.00  0.00     0.050 A 
ATOM      6  C   LIG d   1       3.337  67.353  68.239  0.00  0.00     0.083 A 
ATOM      7 BR   LIG d   1       3.465  68.747  65.751  0.00  0.00    -0.048 Br
ATOM      8  C   LIG d   1       5.821  66.568  65.434  0.00  0.00     0.049 C 
ENDROOT
BRANCH   6   9
ATOM      9  O   LIG d   1       2.301  68.188  68.561  0.00  0.00    -0.359 OA
ATOM     10  H   LIG d   1       1.514  67.861  68.089  0.00  0.00     0.217 HD
ENDBRANCH   6   9
TORSDOF 1
ENDMDL
