MODEL 1
REMARK VINA RESULT:      -6.4      0.000      0.000
REMARK  1 active torsions:
REMARK  status: ('A' for Active; 'I' for Inactive)
REMARK    1  A    between atoms: C_6  and  O_7 
ROOT
ATOM      1  C   LIG d   1       3.704  66.415  69.198  0.00  0.00     0.038 A 
ATOM      2  C   LIG d   1       4.748  65.534  68.933  0.00  0.00     0.003 A 
ATOM      3  C   LIG d   1       5.421  65.595  67.709  0.00  0.00     0.008 A 
ATOM      4  C   LIG d   1       5.059  66.536  66.730  0.00  0.00    -0.042 A 
ATOM      5  C   LIG d   1       4.007  67.425  67.010  0.00  0.00     0.050 A 
ATOM      6  C   LIG d   1       3.337  67.353  68.239  0.00  0.00     0.083 A 
ATOM      7 BR   LIG d   1       3.465  68.747  65.751  0.00  0.00    -0.048 Br
ATOM      8  C   LIG d   1       5.821  66.568  65.434  0.00  0.00     0.049 C 
ENDROOT
BRANCH   6   9
ATOM      9  O   LIG d   1       2.301  68.188  68.561  0.00  0.00    -0.359 OA
ATOM     10  H   LIG d   1       1.514  67.861  68.089  0.00  0.00     0.217 HD
ENDBRANCH   6   9
TORSDOF 1
ENDMDL
MODEL 2
REMARK VINA RESULT:      -6.2      1.914      2.889
REMARK  1 active torsions:
REMARK  status: ('A' for Active; 'I' for Inactive)
REMARK    1  A    between atoms: C_6  and  O_7 
ROOT
ATOM      1  C   LIG d   1       5.135  65.819  67.698  0.00  0.00     0.038 A 
ATOM      2  C   LIG d   1       4.327  66.081  68.801  0.00  0.00     0.003 A 
ATOM      3  C   LIG d   1       3.441  67.162  68.778  0.00  0.00     0.008 A 
ATOM      4  C   LIG d   1       3.350  67.999  67.652  0.00  0.00    -0.042 A 
ATOM      5  C   LIG d   1       4.165  67.722  66.542  0.00  0.00     0.050 A 
ATOM      6  C   LIG d   1       5.052  66.637  66.577  0.00  0.00     0.083 A 
ATOM      7 BR   LIG d   1       4.091  68.789  64.967  0.00  0.00    -0.048 Br
ATOM      8  C   LIG d   1       2.373  69.142  67.673  0.00  0.00     0.049 C 
ENDROOT
BRANCH   6   9
ATOM      9  O   LIG d   1       5.875  66.328  65.528  0.00  0.00    -0.359 OA
ATOM     10  H   LIG d   1       5.775  67.037  64.867  0.00  0.00     0.217 HD
ENDBRANCH   6   9
TORSDOF 1
ENDMDL
MODEL 3
REMARK VINA RESULT:      -5.9      4.046      5.478
REMARK  1 active torsions:
REMARK  status: ('A' for Active; 'I' for Inactive)
REMARK    1  A    between atoms: C_6  and  O_7 
ROOT
ATOM      1  C   LIG d   1       4.675  68.872  61.888  0.00  0.00     0.038 A 
ATOM      2  C   LIG d   1       5.595  69.204  62.878  0.00  0.00     0.003 A 
ATOM      3  C   LIG d   1       5.226  69.145  64.225  0.00  0.00     0.008 A 
ATOM      4  C   LIG d   1       3.929  68.755  64.603  0.00  0.00    -0.042 A 
ATOM      5  C   LIG d   1       3.009  68.417  63.597  0.00  0.00     0.050 A 
ATOM      6  C   LIG d   1       3.389  68.482  62.249  0.00  0.00     0.083 A 
ATOM      7 BR   LIG d   1       1.239  67.856  64.020  0.00  0.00    -0.048 Br
ATOM      8  C   LIG d   1       3.585  68.698  66.066  0.00  0.00     0.049 C 
ENDROOT
BRANCH   6   9
ATOM      9  O   LIG d   1       2.531  68.172  61.229  0.00  0.00    -0.359 OA
ATOM     10  H   LIG d   1       3.076  67.876  60.477  0.00  0.00     0.217 HD
ENDBRANCH   6   9
TORSDOF 1
ENDMDL
MODEL 4
REMARK VINA RESULT:      -5.9      3.015      3.907
REMARK  1 active torsions:
REMARK  status: ('A' for Active; 'I' for Inactive)
REMARK    1  A    between atoms: C_6  and  O_7 
ROOT
ATOM      1  C   LIG d   1       3.629  66.577  68.864  0.00  0.00     0.038 A 
ATOM      2  C   LIG d   1       4.906  66.024  68.863  0.00  0.00     0.003 A 
ATOM      3  C   LIG d   1       5.088  64.683  69.214  0.00  0.00     0.008 A 
ATOM      4  C   LIG d   1       3.996  63.875  69.574  0.00  0.00    -0.042 A 
ATOM      5  C   LIG d   1       2.710  64.441  69.566  0.00  0.00     0.050 A 
ATOM      6  C   LIG d   1       2.540  65.787  69.214  0.00  0.00     0.083 A 
ATOM      7 BR   LIG d   1       1.172  63.414  70.016  0.00  0.00    -0.048 Br
ATOM      8  C   LIG d   1       4.244  62.436  69.933  0.00  0.00     0.049 C 
ENDROOT
BRANCH   6   9
ATOM      9  O   LIG d   1       1.311  66.392  69.198  0.00  0.00    -0.359 OA
ATOM     10  H   LIG d   1       1.101  66.638  70.117  0.00  0.00     0.217 HD
ENDBRANCH   6   9
TORSDOF 1
ENDMDL
MODEL 5
REMARK VINA RESULT:      -5.8      2.003      2.933
REMARK  1 active torsions:
REMARK  status: ('A' for Active; 'I' for Inactive)
REMARK    1  A    between atoms: C_6  and  O_7 
ROOT
ATOM      1  C   LIG d   1       2.886  69.007  67.076  0.00  0.00     0.038 A 
ATOM      2  C   LIG d   1       2.695  68.461  68.342  0.00  0.00     0.003 A 
ATOM      3  C   LIG d   1       3.406  67.321  68.727  0.00  0.00     0.008 A 
ATOM      4  C   LIG d   1       4.319  66.708  67.852  0.00  0.00    -0.042 A 
ATOM      5  C   LIG d   1       4.510  67.270  66.578  0.00  0.00     0.050 A 
ATOM      6  C   LIG d   1       3.789  68.411  66.201  0.00  0.00     0.083 A 
ATOM      7 BR   LIG d   1       5.742  66.518  65.337  0.00  0.00    -0.048 Br
ATOM      8  C   LIG d   1       5.068  65.489  68.318  0.00  0.00     0.049 C 
ENDROOT
BRANCH   6   9
ATOM      9  O   LIG d   1       3.929  68.995  64.971  0.00  0.00    -0.359 OA
ATOM     10  H   LIG d   1       4.481  68.398  64.432  0.00  0.00     0.217 HD
ENDBRANCH   6   9
TORSDOF 1
ENDMDL
MODEL 6
REMARK VINA RESULT:      -5.8      4.673      5.658
REMARK  1 active torsions:
REMARK  status: ('A' for Active; 'I' for Inactive)
REMARK    1  A    between atoms: C_6  and  O_7 
ROOT
ATOM      1  C   LIG d   1       5.473  68.998  63.968  0.00  0.00     0.038 A 
ATOM      2  C   LIG d   1       4.530  68.857  64.982  0.00  0.00     0.003 A 
ATOM      3  C   LIG d   1       3.187  68.639  64.663  0.00  0.00     0.008 A 
ATOM      4  C   LIG d   1       2.765  68.561  63.324  0.00  0.00    -0.042 A 
ATOM      5  C   LIG d   1       3.725  68.699  62.308  0.00  0.00     0.050 A 
ATOM      6  C   LIG d   1       5.069  68.920  62.640  0.00  0.00     0.083 A 
ATOM      7 BR   LIG d   1       3.246  68.584  60.469  0.00  0.00    -0.048 Br
ATOM      8  C   LIG d   1       1.310  68.315  63.034  0.00  0.00     0.049 C 
ENDROOT
BRANCH   6   9
ATOM      9  O   LIG d   1       6.044  69.070  61.691  0.00  0.00    -0.359 OA
ATOM     10  H   LIG d   1       6.441  68.191  61.547  0.00  0.00     0.217 HD
ENDBRANCH   6   9
TORSDOF 1
ENDMDL
MODEL 7
REMARK VINA RESULT:      -5.7      1.105      1.106
REMARK  1 active torsions:
REMARK  status: ('A' for Active; 'I' for Inactive)
REMARK    1  A    between atoms: C_6  and  O_7 
ROOT
ATOM      1  C   LIG d   1       3.963  65.579  68.982  0.00  0.00     0.038 A 
ATOM      2  C   LIG d   1       5.144  65.311  68.296  0.00  0.00     0.003 A 
ATOM      3  C   LIG d   1       5.450  66.013  67.127  0.00  0.00     0.008 A 
ATOM      4  C   LIG d   1       4.578  66.994  66.623  0.00  0.00    -0.042 A 
ATOM      5  C   LIG d   1       3.392  67.262  67.326  0.00  0.00     0.050 A 
ATOM      6  C   LIG d   1       3.093  66.549  68.496  0.00  0.00     0.083 A 
ATOM      7 BR   LIG d   1       2.165  68.589  66.728  0.00  0.00    -0.048 Br
ATOM      8  C   LIG d   1       4.959  67.728  65.367  0.00  0.00     0.049 C 
ENDROOT
BRANCH   6   9
ATOM      9  O   LIG d   1       1.948  66.764  69.214  0.00  0.00    -0.359 OA
ATOM     10  H   LIG d   1       1.751  65.938  69.692  0.00  0.00     0.217 HD
ENDBRANCH   6   9
TORSDOF 1
ENDMDL
MODEL 8
REMARK VINA RESULT:      -5.7      3.813      5.390
REMARK  1 active torsions:
REMARK  status: ('A' for Active; 'I' for Inactive)
REMARK    1  A    between atoms: C_6  and  O_7 
ROOT
ATOM      1  C   LIG d   1       4.989  68.018  61.976  0.00  0.00     0.038 A 
ATOM      2  C   LIG d   1       5.113  69.118  62.819  0.00  0.00     0.003 A 
ATOM      3  C   LIG d   1       4.919  68.970  64.195  0.00  0.00     0.008 A 
ATOM      4  C   LIG d   1       4.597  67.719  64.750  0.00  0.00    -0.042 A 
ATOM      5  C   LIG d   1       4.481  66.613  63.891  0.00  0.00     0.050 A 
ATOM      6  C   LIG d   1       4.674  66.774  62.512  0.00  0.00     0.083 A 
ATOM      7 BR   LIG d   1       4.071  64.878  64.559  0.00  0.00    -0.048 Br
ATOM      8  C   LIG d   1       4.410  67.610  66.238  0.00  0.00     0.049 C 
ENDROOT
BRANCH   6   9
ATOM      9  O   LIG d   1       4.565  65.734  61.629  0.00  0.00    -0.359 OA
ATOM     10  H   LIG d   1       3.711  65.298  61.805  0.00  0.00     0.217 HD
ENDBRANCH   6   9
TORSDOF 1
ENDMDL
MODEL 9
REMARK VINA RESULT:      -5.7      2.374      3.080
REMARK  1 active torsions:
REMARK  status: ('A' for Active; 'I' for Inactive)
REMARK    1  A    between atoms: C_6  and  O_7 
ROOT
ATOM      1  C   LIG d   1       1.534  64.077  69.988  0.00  0.00     0.038 A 
ATOM      2  C   LIG d   1       2.625  63.215  70.031  0.00  0.00     0.003 A 
ATOM      3  C   LIG d   1       3.879  63.650  69.594  0.00  0.00     0.008 A 
ATOM      4  C   LIG d   1       4.062  64.955  69.105  0.00  0.00    -0.042 A 
ATOM      5  C   LIG d   1       2.955  65.821  69.071  0.00  0.00     0.050 A 
ATOM      6  C   LIG d   1       1.702  65.372  69.509  0.00  0.00     0.083 A 
ATOM      7 BR   LIG d   1       3.117  67.612  68.446  0.00  0.00    -0.048 Br
ATOM      8  C   LIG d   1       5.434  65.379  68.657  0.00  0.00     0.049 C 
ENDROOT
BRANCH   6   9
ATOM      9  O   LIG d   1       0.589  66.170  69.490  0.00  0.00    -0.359 OA
ATOM     10  H   LIG d   1      -0.072  65.753  70.073  0.00  0.00     0.217 HD
ENDBRANCH   6   9
TORSDOF 1
ENDMDL
