./lig2_out.pdbqt0.pdbqt
 OpenBabel10092110123D

 10 10  0  0  0  0  0  0  0  0999 V2000
    3.7040   66.4150   69.1980 C   0  0  0  0  0  0  0  0  0  0  0  0
    4.7480   65.5340   68.9330 C   0  0  0  0  0  0  0  0  0  0  0  0
    5.4210   65.5950   67.7090 C   0  0  0  0  0  0  0  0  0  0  0  0
    5.0590   66.5360   66.7300 C   0  0  0  0  0  0  0  0  0  0  0  0
    4.0070   67.4250   67.0100 C   0  0  0  0  0  0  0  0  0  0  0  0
    3.3370   67.3530   68.2390 C   0  0  0  0  0  0  0  0  0  0  0  0
    3.4650   68.7470   65.7510 Br  0  0  0  0  0  0  0  0  0  0  0  0
    5.8210   66.5680   65.4340 C   0  0  0  0  0  0  0  0  0  0  0  0
    2.3010   68.1880   68.5610 O   0  0  0  0  0  0  0  0  0  0  0  0
    1.5140   67.8610   68.0890 H   0  0  0  0  0  0  0  0  0  0  0  0
  2  1  1  0  0  0  0
  3  2  2  0  0  0  0
  4  5  2  0  0  0  0
  4  3  1  0  0  0  0
  5  6  1  0  0  0  0
  6  9  1  0  0  0  0
  6  1  2  0  0  0  0
  7  5  1  0  0  0  0
  8  4  1  0  0  0  0
 10  9  1  0  0  0  0
M  END
>  <MODEL>
1

>  <REMARK>
 VINA RESULT:      -6.4      0.000      0.000
  1 active torsions:
  status: ('A' for Active; 'I' for Inactive)
    1  A    between atoms: C_6  and  O_7 

>  <TORSDO>
F 1

$$$$
