MODEL 1
REMARK VINA RESULT:      -6.6      0.000      0.000
REMARK  2 active torsions:
REMARK  status: ('A' for Active; 'I' for Inactive)
REMARK    1  A    between atoms: C_2  and  N_11 
REMARK    2  A    between atoms: C_6  and  O_7 
ROOT
ATOM      1  C   LIG d   1       4.791  69.002  61.958  0.00  0.00     0.171 A 
ATOM      2  C   LIG d   1       3.663  68.643  61.212  0.00  0.00     0.048 A 
ATOM      3  C   LIG d   1       2.480  68.346  61.898  0.00  0.00     0.034 A 
ATOM      4  C   LIG d   1       2.434  68.317  63.305  0.00  0.00    -0.040 A 
ATOM      5  C   LIG d   1       3.599  68.634  64.028  0.00  0.00     0.053 A 
ATOM      6  C   LIG d   1       4.773  68.982  63.351  0.00  0.00     0.124 A 
ATOM      7 BR   LIG d   1       3.609  68.623  65.933  0.00  0.00    -0.047 Br
ATOM      8  C   LIG d   1       1.136  67.965  63.980  0.00  0.00     0.049 C 
ATOM      9  F   LIG d   1       5.916  69.349  61.309  0.00  0.00    -0.201 F 
ENDROOT
BRANCH   2  10
ATOM     10  N   LIG d   1       3.644  68.790  59.815  0.00  0.00    -0.300 NA
ATOM     11  H   LIG d   1       4.285  69.516  59.495  0.00  0.00     0.124 HD
ATOM     12  H   LIG d   1       3.742  67.924  59.297  0.00  0.00     0.124 HD
ENDBRANCH   2  10
BRANCH   6  13
ATOM     13  O   LIG d   1       5.923  69.315  64.020  0.00  0.00    -0.356 OA
ATOM     14  H   LIG d   1       6.341  68.489  64.321  0.00  0.00     0.218 HD
ENDBRANCH   6  13
TORSDOF 2
ENDMDL
