./lig3_out.pdbqt0.pdbqt
 OpenBabel10092110123D

 14 14  0  0  0  0  0  0  0  0999 V2000
    4.7910   69.0020   61.9580 C   0  0  0  0  0  0  0  0  0  0  0  0
    3.6630   68.6430   61.2120 C   0  0  0  0  0  0  0  0  0  0  0  0
    2.4800   68.3460   61.8980 C   0  0  0  0  0  0  0  0  0  0  0  0
    2.4340   68.3170   63.3050 C   0  0  0  0  0  0  0  0  0  0  0  0
    3.5990   68.6340   64.0280 C   0  0  0  0  0  0  0  0  0  0  0  0
    4.7730   68.9820   63.3510 C   0  0  0  0  0  0  0  0  0  0  0  0
    3.6090   68.6230   65.9330 Br  0  0  0  0  0  0  0  0  0  0  0  0
    1.1360   67.9650   63.9800 C   0  0  0  0  0  0  0  0  0  0  0  0
    5.9160   69.3490   61.3090 F   0  0  0  0  0  0  0  0  0  0  0  0
    3.6440   68.7900   59.8150 N   0  0  0  0  0  0  0  0  0  0  0  0
    4.2850   69.5160   59.4950 H   0  0  0  0  0  0  0  0  0  0  0  0
    3.7420   67.9240   59.2970 H   0  0  0  0  0  0  0  0  0  0  0  0
    5.9230   69.3150   64.0200 O   0  0  0  0  0  0  0  0  0  0  0  0
    6.3410   68.4890   64.3210 H   0  0  0  0  0  0  0  0  0  0  0  0
  1  6  2  0  0  0  0
  2  3  2  0  0  0  0
  2  1  1  0  0  0  0
  3  4  1  0  0  0  0
  4  8  1  0  0  0  0
  4  5  2  0  0  0  0
  5  7  1  0  0  0  0
  6 13  1  0  0  0  0
  6  5  1  0  0  0  0
  9  1  1  0  0  0  0
 10  2  1  0  0  0  0
 11 10  1  0  0  0  0
 12 10  1  0  0  0  0
 13 14  1  0  0  0  0
M  END
>  <MODEL>
1

>  <REMARK>
 VINA RESULT:      -6.6      0.000      0.000
  2 active torsions:
  status: ('A' for Active; 'I' for Inactive)
    1  A    between atoms: C_2  and  N_11 
    2  A    between atoms: C_6  and  O_7 

>  <TORSDO>
F 2

$$$$
